<?xml version="1.0" encoding="UTF-8"?>

<!-- generated on 2026-02-28 16:22:22.700035 by randomTrips.py UNKNOWN
<configuration>
    <net-file value="erlangen.net.xml"/>
    <route-file value="erlangen.rou.xml"/>
    <trip-attributes value="departLane=&quot;best&quot; departSpeed=&quot;max&quot;"/>
    <random value="True"/>
    <min-distance value="1500.0"/>
    <end value="500.0"/>
    <period value="2.0"/>
</configuration>
-->

<!-- generated on 2026-02-28 16:22:22 by Eclipse SUMO duarouter Version 1.18.0
<configuration xmlns:xsi="http://www.w3.org/2001/XMLSchema-instance" xsi:noNamespaceSchemaLocation="http://sumo.dlr.de/xsd/duarouterConfiguration.xsd">

    <input>
        <net-file value="erlangen.net.xml"/>
        <route-files value="trips.trips.xml"/>
    </input>

    <output>
        <output-file value="erlangen.rou.xml"/>
        <alternatives-output value="NUL"/>
    </output>

    <time>
        <begin value="0"/>
        <end value="500.0"/>
    </time>

    <report>
        <no-warnings value="true"/>
        <ignore-errors value="true"/>
        <no-step-log value="true"/>
    </report>

</configuration>
-->

<routes xmlns:xsi="http://www.w3.org/2001/XMLSchema-instance" xsi:noNamespaceSchemaLocation="http://sumo.dlr.de/xsd/routes_file.xsd">
    <vehicle id="0" depart="0.00" departLane="best" departSpeed="max">
        <route edges="32611578 23805514#1 -4006702#2 -4006702#1 -4006702#0 4319352#1 44069041#0 44069041#1 25472079 30405352 30350445 -33174302#1 -33174302#0 -32302591#5 -32302591#4 -32302591#3 -32302591#2 -32302591#1 -32302591#0 4006672 -4006672"/>
    </vehicle>
    <vehicle id="1" depart="2.00" departLane="best" departSpeed="max">
        <route edges="30405358#0 30405358#1 85355912 85355911#0 85355911#1 30405356 5931612 30350450#0 30350450#1 30350450#2 4006702#0 28613737 94344941 94344940#0 -28613727#1 28631632"/>
    </vehicle>
    <vehicle id="2" depart="4.00" departLane="best" departSpeed="max">
        <route edges="125685391 32302591#0 32302591#1 32302591#2 32302591#3 32302591#4 32302591#5 33174302#0 33174302#1 4686970#0 4686970#1 122161381 30350448 8364476 30350450#0 30350450#1 30350450#2 4006702#0 4006702#1 4006702#2 -23805514#1 -23805514#0"/>
    </vehicle>
    <vehicle id="3" depart="6.00" departLane="best" departSpeed="max">
        <route edges="4006693#0 -23605595 -8403007 -29900564#1 -8402998#2 -8402998#1 -8402997 32270595 33174302#0 33174302#1 4686970#0 4686970#1 122161381 30350448 8364476 30350450#0 30350450#1 30350450#2 4006702#0 31255203#0 -31241851#2 31241851#2"/>
    </vehicle>
    <vehicle id="4" depart="8.00" departLane="best" departSpeed="max">
        <route edges="-5445204#2 -5445204#1 113939244#2 -126606716 23339459 30405358#1 85355912 85355911#0 85355911#1 30405356 5931612 30350450#0 30350450#1 30350450#2 4006702#0 31255203#0 31255203#1 31241838#0 31241838#1 31241816#1"/>
    </vehicle>
    <vehicle id="5" depart="10.00" departLane="best" departSpeed="max">
        <route edges="-29900564#0 29900561#0 29900561#1 32270595 33174302#0 33174302#1 4686970#0 4686970#1 122161381 30350448 8364476 30350450#0 30350450#1 30350450#2 4006702#0 4006702#1 4006702#2"/>
    </vehicle>
    <vehicle id="6" depart="12.00" departLane="best" departSpeed="max">
        <route edges="-31241851#2 31241851#2 -31255203#0 -4006702#0 4319352#1 44069041#0 44069041#1 25472079 30405352 30350445 -33174302#1 -33174302#0 -32270595 8402997 8402998#1 8402998#2 29900564#1 8403007 23605595 4006693#1 4006693#2"/>
    </vehicle>
    <vehicle id="7" depart="14.00" departLane="best" departSpeed="max">
        <route edges="-3013106#0 3013106#0 3013106#1 3013106#2 4319352#1 44069041#0 44069041#1 25472079 30405352 30350445 -33174302#1 -33174302#0 -32270595 -29900561#1 -29900561#0 -8403001 -4006674#4 23605600#1 23605600#2"/>
    </vehicle>
    <vehicle id="8" depart="16.00" departLane="best" departSpeed="max">
        <route edges="-10712011 4006688#1 4006688#2 4006688#3 4006688#4 29900561#0 29900561#1 32270595 33174302#0 33174302#1 4686970#0 4686970#1 122161381 30350448 8364476 30350450#0 30350450#1 30350450#2 4006702#0 4006702#1 4006702#2 -23805514#1 -23805514#0"/>
    </vehicle>
    <vehicle id="9" depart="18.00" departLane="best" departSpeed="max">
        <route edges="4006703#0 4006703#1 28269598 -4006702#2 -4006702#1 -4006702#0 4319352#1 44069041#0 44069041#1 4400949 31982182#0 4047241 4797872 4797871 4006668 126606716 113939242#0 113939242#1 113939242#2 113939241 -37591481 -28269601 28269601"/>
    </vehicle>
    <vehicle id="10" depart="20.00" departLane="best" departSpeed="max">
        <route edges="3998615#1 3998643#2 30350450#2 4319352#1 44069041#0 44069041#1 4400949 31982182#0 4047241"/>
    </vehicle>
    <vehicle id="11" depart="22.00" departLane="best" departSpeed="max">
        <route edges="8403001 29900561#0 29900561#1 32270595 33174302#0 33174302#1 4686970#0 4686970#1 122161381 30350448 8364476 30350450#0 30350450#1 30350450#2 4319353 4319349"/>
    </vehicle>
    <vehicle id="12" depart="24.00" departLane="best" departSpeed="max">
        <route edges="-23570844#2 -5445204#3 -5445204#2 -5445204#1 113939244#2 -126606716 23339459 30405358#1 85355912 85355911#0 85355911#1 30405356 5931612 30350450#0 30350450#1 30350450#2 4006702#0 4006702#1 -4006702#1"/>
    </vehicle>
    <vehicle id="13" depart="26.00" departLane="best" departSpeed="max">
        <route edges="10573414#0 10573414#1 3013106#0 3013106#1 3013106#2 4319352#1 44069041#0 44069041#1 25472079 30405352 30350445 -33174302#1 -33174302#0 -32270595 -29900561#1 -29900561#0 29900561#0"/>
    </vehicle>
    <vehicle id="14" depart="28.00" departLane="best" departSpeed="max">
        <route edges="-28613737 -4006702#0 4319352#1 44069041#0 44069041#1 25472079 30405352 30350445 -33174302#1 -33174302#0 -32302591#5 -32302591#4 -32302591#3 -32302591#2 4006683"/>
    </vehicle>
    <vehicle id="15" depart="30.00" departLane="best" departSpeed="max">
        <route edges="-4099270#0 4006726#2 -3998645#0 -3998612#0 30357194 25472299 30350448 30350449 4400949 31982182#0 4047241 4797872 4797871 4006668 126606716 113939242#0 113939242#1 113939242#2 113939244#0"/>
    </vehicle>
    <vehicle id="16" depart="32.00" departLane="best" departSpeed="max">
        <route edges="113939244#0 113939244#1 113939244#2 -126606716 23339459 30405358#1 85355912 85355911#0 85355911#1 30405356 5931612 30350450#0 30350450#1 30350450#2 4006702#0 28613737 94344941 94344940#0 94344940#2 -54105725"/>
    </vehicle>
    <vehicle id="17" depart="34.00" departLane="best" departSpeed="max">
        <route edges="-4006703#1 4006703#1 28269598 -4006702#2 -4006702#1 -4006702#0 4319352#1 44069041#0 44069041#1 4400949 31982182#0 4047241 4797872 4797871 4006668 126606716 113939242#0 113939242#1 -25398494#0"/>
    </vehicle>
    <vehicle id="18" depart="36.00" departLane="best" departSpeed="max">
        <route edges="10573414#0 10573414#1 3013106#0 3013106#1 3013106#2 4319352#1 44069041#0 44069041#1 25472079 30405352 30350445 -33174302#1 -33174302#0 -32270595 -29900561#1 -29900561#0 -4006688#4 -4006688#3 -4006688#2 -4006688#1 -4006688#0 -31401017#0 -29900567 -31401018 31401018"/>
    </vehicle>
    <vehicle id="19" depart="38.00" departLane="best" departSpeed="max">
        <route edges="4006674#3 4006674#4 4006687 32270595 33174302#0 33174302#1 4686970#0 4686970#1 122161381 30350448 8364476 30350450#0 30350450#1 30350450#2 4006702#0 31255203#0 31255203#1 31241838#0 -31241838#0"/>
    </vehicle>
    <vehicle id="20" depart="40.00" departLane="best" departSpeed="max">
        <route edges="-31255203#0 -4006702#0 4319352#1 44069041#0 44069041#1 4400949 31982182#0 4047241 4797872 4797871 4006668 126606716 113939242#0 113939242#1 113939242#2 113939244#0"/>
    </vehicle>
    <vehicle id="21" depart="42.00" departLane="best" departSpeed="max">
        <route edges="-31241851#1 31241851#1 31241851#2 -31255203#0 -4006702#0 4319352#1 44069041#0 44069041#1 25472079 30405352 30350445 -33174302#1 -33174302#0 -32270595 -29900561#1 -29900561#0"/>
    </vehicle>
    <vehicle id="22" depart="44.00" departLane="best" departSpeed="max">
        <route edges="28613737 -28613737 -4006702#0 4319352#1 44069041#0 44069041#1 25472079 30405352 30350445 -33174302#1 -33174302#0 -32270595 -29900561#1 -29900561#0 -8403001 -4006674#4 -4006674#3"/>
    </vehicle>
    <vehicle id="23" depart="46.00" departLane="best" departSpeed="max">
        <route edges="-4006675 -23605600#1 4006674#4 4006687 32270595 33174302#0 33174302#1 4686970#0 4686970#1 122161381 30350448 8364476 30350450#0 30350450#1 30350450#2 -3013106#2 3013106#2"/>
    </vehicle>
    <vehicle id="24" depart="48.00" departLane="best" departSpeed="max">
        <route edges="37591481 -113939241 113939244#0 113939244#1 113939244#2 -126606716 23339459 30405358#1 85355912 85355911#0 85355911#1 30405356 5931612 30350450#0 30350450#1 30350450#2 4006702#0 31255203#0 -31241851#2 -31241851#1 -31241851#0 -31241848 -31241834#0"/>
    </vehicle>
    <vehicle id="25" depart="50.00" departLane="best" departSpeed="max">
        <route edges="4047378 4006724#1 4006724#2 -3998612#1 -3998612#0 30357194 25472299 30350448 30350449 4400949 31982182#0 4047241 4797872 4797871 4006668 23339459"/>
    </vehicle>
    <vehicle id="26" depart="52.00" departLane="best" departSpeed="max">
        <route edges="-4006703#1 4006703#1 28269598 -4006702#2 -4006702#1 -4006702#0 4319352#1 44069041#0 44069041#1 25472079 30405352 30350445 -33174302#1 -33174302#0 -32302591#5 -32302591#4 -32302591#3 -32302591#2 -32302591#1 4006682 -4006682"/>
    </vehicle>
    <vehicle id="27" depart="54.00" departLane="best" departSpeed="max">
        <route edges="-31401017#1 4006688#0 4006688#1 4006688#2 4006688#3 4006688#4 29900561#0 29900561#1 32270595 33174302#0 33174302#1 4686970#0 4686970#1 122161381 30350448 8364476 30350450#0 30350450#1 30350450#2 4006702#0 31255203#0 -31241851#2 -31241853#2"/>
    </vehicle>
    <vehicle id="28" depart="56.00" departLane="best" departSpeed="max">
        <route edges="10419402 -4006693#1 -23605595 -8403007 -29900564#1 -8402998#2 -8402998#1 -8402997 32270595 33174302#0 33174302#1 4686970#0 4686970#1 122161381 30350448 8364476 30350450#0 30350450#1 30350450#2 -3013106#2 -3013106#1"/>
    </vehicle>
    <vehicle id="29" depart="58.00" departLane="best" departSpeed="max">
        <route edges="29900565#2 29900565#3 33174302#0 33174302#1 4686970#0 4686970#1 122161381 30350448 8364476 30350450#0 30350450#1 30350450#2 4006702#0 4006702#1 4006702#2 -28269598 -4006703#1 4006705#1 -25210699"/>
    </vehicle>
    <vehicle id="30" depart="60.00" departLane="best" departSpeed="max">
        <route edges="28613737 -28613737 -4006702#0 4319352#1 44069041#0 44069041#1 25472079 30405352 30350445 -33174302#1 -33174302#0 -32270595 8402997 8402998#1 8402998#2 29900564#1 8403007 23605595"/>
    </vehicle>
    <vehicle id="31" depart="62.00" departLane="best" departSpeed="max">
        <route edges="4006693#0 -23605595 -8403007 -29900564#1 -8402998#2 -8402998#1 -8402997 32270595 33174302#0 33174302#1 4686970#0 4686970#1 122161381 30350448 8364476 30350450#0 30350450#1 30350450#2 4006702#0 31255203#0 -31241851#2 -31241851#1 -31241851#0 31241816#3 -31241816#3"/>
    </vehicle>
    <vehicle id="32" depart="64.00" departLane="best" departSpeed="max">
        <route edges="-28613737 -4006702#0 4319352#1 44069041#0 44069041#1 4400949 31982182#0 4047241 4797872 4797871 4006668 126606716 113939242#0 5445204#1 5445204#2 -5445204#2"/>
    </vehicle>
    <vehicle id="33" depart="66.00" departLane="best" departSpeed="max">
        <route edges="28613737 -28613737 -4006702#0 4319352#1 44069041#0 44069041#1 4400949 31982182#0 4047241 4797872 4797871 4006668 126606716 113939242#0 113939242#1 -25398494#0"/>
    </vehicle>
    <vehicle id="34" depart="68.00" departLane="best" departSpeed="max">
        <route edges="-32320329 -113939241 113939244#0 113939244#1 113939244#2 -126606716 23339459 30405358#1"/>
    </vehicle>
    <vehicle id="35" depart="70.00" departLane="best" departSpeed="max">
        <route edges="4392769 28269601 37591481 -113939241 113939244#0 113939244#1 113939244#2 -126606716 23339459 30405358#1 85355912 85355911#0 85355911#1 30405356 5931612 30350450#0 30350450#1 30350450#2 4006702#0 31255203#0 -31241851#2 -31241851#1 -31241851#0 31241816#3 -31241835#0"/>
    </vehicle>
    <vehicle id="36" depart="72.00" departLane="best" departSpeed="max">
        <route edges="23339459 30405358#1 85355912 85355911#0 85355911#1 30405356 5931612 30350450#0 30350450#1 30350450#2 4006702#0 31255203#0 -31255203#0"/>
    </vehicle>
    <vehicle id="37" depart="74.00" departLane="best" departSpeed="max">
        <route edges="4006674#1 4006674#2 4006674#3 4006674#4 4006687 32270595 33174302#0 33174302#1 4686970#0 4686970#1 122161381 30350448 8364476 30350450#0 30350450#1 30350450#2 4006702#0 31255203#0 -31241851#2 -31241851#1 -31241851#0 -31241848"/>
    </vehicle>
    <vehicle id="38" depart="76.00" departLane="best" departSpeed="max">
        <route edges="-31241855#1 31241855#1 31241853#1 -31241838#0 -31255203#1 -31255203#0 -4006702#0 4319352#1 44069041#0 44069041#1 25472079 30405352 30350445 -33174302#1 -33174302#0 -32270595 -29900561#1 -29900561#0 -8403001 -4006674#4 23605600#1 23605600#2"/>
    </vehicle>
    <vehicle id="39" depart="78.00" departLane="best" departSpeed="max">
        <route edges="4319352#0 4319352#1 44069041#0 44069041#1 4400949 31982182#0 4047241 4797872 4797871 4006668 126606716 113939242#0 113939242#1 113939242#2 113939244#0"/>
    </vehicle>
    <vehicle id="40" depart="80.00" departLane="best" departSpeed="max">
        <route edges="4006668 23339459 30405358#1 85355912 85355911#0 85355911#1 30405356 5931612 30350450#0 30350450#1 30350450#2 4006702#0 28613737 94344941 94344940#0 94344940#2 -94344940#2"/>
    </vehicle>
    <vehicle id="41" depart="82.00" departLane="best" departSpeed="max">
        <route edges="-4006703#1 4006703#1 28269598 -4006702#2 -4006702#1 -4006702#0 4319352#1 44069041#0 44069041#1 4400949 31982182#0"/>
    </vehicle>
    <vehicle id="42" depart="84.00" departLane="best" departSpeed="max">
        <route edges="-31241835#1 -31241816#3 31241851#0 31241851#1 31241851#2 -31255203#0 -4006702#0 4319352#1 44069041#0 44069041#1 25472079 30405352 30350445 -33174302#1 -33174302#0 -32270595 -29900561#1 -29900561#0 -8403001 -4006674#4"/>
    </vehicle>
    <vehicle id="43" depart="86.00" departLane="best" departSpeed="max">
        <route edges="113939244#2 -126606716 23339459 30405358#1 85355912 85355911#0 85355911#1 30405356 5931612 30350450#0 30350450#1 30350450#2 4006702#0 28613737"/>
    </vehicle>
    <vehicle id="44" depart="88.00" departLane="best" departSpeed="max">
        <route edges="31401018 29900567 31401017#0 4006688#0 4006688#1 4006688#2 4006688#3 4006688#4 29900561#0 29900561#1 32270595 33174302#0 33174302#1 4686970#0 4686970#1 122161381 30350448 8364476 30350450#0 30350450#1 30350450#2 4006702#0 4006702#1 4900043 4900041#1 4900041#2 -23350930"/>
    </vehicle>
    <vehicle id="45" depart="90.00" departLane="best" departSpeed="max">
        <route edges="-8402998#3 -29900564#0 29900561#0 29900561#1 32270595 33174302#0 33174302#1 4686970#0 4686970#1 122161381 30350448 8364476 30350450#0 30350450#1 30350450#2 4006702#0 4006702#1 -4006702#1"/>
    </vehicle>
    <vehicle id="46" depart="92.00" departLane="best" departSpeed="max">
        <route edges="-31241816#3 31241851#0 31241851#1 31241851#2 -31255203#0 -4006702#0 4319352#1 44069041#0 44069041#1 25472079 30405352 30350445 -33174302#1 -33174302#0 -32270595 8402997 8402998#1 8402998#2 29900564#1 8403007 23605595 4006693#1 -10419402"/>
    </vehicle>
    <vehicle id="47" depart="94.00" departLane="best" departSpeed="max">
        <route edges="3013106#2 4319352#1 44069041#0 44069041#1 25472079 30405352 30350445 -33174302#1 -33174302#0 -32270595 -29900561#1 -29900561#0 -4006688#4 -4006688#3 -4006688#2 -4006688#1 4006688#1"/>
    </vehicle>
    <vehicle id="48" depart="96.00" departLane="best" departSpeed="max">
        <route edges="33174302#0 33174302#1 4686970#0 4686970#1 122161381 30350448 30350449 4400949 31982182#0 4047241 4797872 4797871 -15259223"/>
    </vehicle>
    <vehicle id="49" depart="98.00" departLane="best" departSpeed="max">
        <route edges="-26188722 35842306#1 4047446#0 4047446#1 4400949 31982182#0 4047241 4797872 4797871 4006668"/>
    </vehicle>
    <vehicle id="50" depart="100.00" departLane="best" departSpeed="max">
        <route edges="-31401017#2 -31401017#1 4006688#0 4006688#1 4006688#2 4006688#3 4006688#4 29900561#0 29900561#1 32270595 33174302#0 33174302#1 4686970#0 4686970#1 122161381 30350448 8364476 30350450#0 30350450#1 30350450#2 4006702#0 4006702#1 4006702#2 -28269598 -4006703#1 4006705#1 4006705#2"/>
    </vehicle>
    <vehicle id="51" depart="102.00" departLane="best" departSpeed="max">
        <route edges="-10425130 4006688#2 4006688#3 4006688#4 29900561#0 29900561#1 32270595 33174302#0 33174302#1 4686970#0 4686970#1 122161381 30350448 8364476 30350450#0 30350450#1 30350450#2 4006702#0 4006702#1 4006702#2 -28269598 -4006703#1 4006705#1 4006705#2 31720632#0"/>
    </vehicle>
    <vehicle id="52" depart="104.00" departLane="best" departSpeed="max">
        <route edges="23350929 4900041#2 4900041#3 4900041#0 -4900043 -4006702#1 -4006702#0 4319352#1 44069041#0 44069041#1 4400949 31982182#0 4047241 4797872 4797871 4006668 126606716 113939242#0 113939242#1 113939244#1"/>
    </vehicle>
    <vehicle id="53" depart="106.00" departLane="best" departSpeed="max">
        <route edges="-4006693#2 -4006693#1 -23605595 -8403007 -29900564#1 -8402998#2 -8402998#1 -8402997 32270595 33174302#0 33174302#1 4686970#0 4686970#1 122161381 30350448 8364476 30350450#0 30350450#1 30350450#2 4006702#0 4006702#1 4006702#2 -28269598 -4006703#1 -4006705#0"/>
    </vehicle>
    <vehicle id="54" depart="108.00" departLane="best" departSpeed="max">
        <route edges="15259223 4006668 126606716 113939242#0 113939242#1 -25398494#0 4006693#0 -23605595 -8403007 29900564#2 -4006691"/>
    </vehicle>
    <vehicle id="55" depart="110.00" departLane="best" departSpeed="max">
        <route edges="4006726#1 4006726#2 -3998645#0 -3998612#0 30357194 25472299 30350448 30350449 4400949 31982182#0 4047241 4797872 4797871 4006668 126606716 113939242#0 113939242#1 113939242#2 113939244#0"/>
    </vehicle>
    <vehicle id="56" depart="112.00" departLane="best" departSpeed="max">
        <route edges="28269598 -4006702#2 -4006702#1 -4006702#0 -3013106#2 -3013106#1 -3013106#0 -3998612#2 -3998612#1 -3998612#0 3998613#0 3998613#1 3998613#2 -3998613#2"/>
    </vehicle>
    <vehicle id="57" depart="114.00" departLane="best" departSpeed="max">
        <route edges="31241816#1 31241851#0 31241851#1 31241851#2 -31255203#0 -4006702#0 4319352#1 44069041#0 44069041#1 25472079 30405352 30350445 -33174302#1 -33174302#0 -32270595 8402997 8402998#1 8402998#2 29900564#1 -29900564#1"/>
    </vehicle>
    <vehicle id="58" depart="116.00" departLane="best" departSpeed="max">
        <route edges="4006705#2 -4006705#2 -4006705#1 4006703#1 28269598 -4006702#2 -4006702#1 -4006702#0 4319352#1 44069041#0 44069041#1 25472079 30405352 30350445 -33174302#1 -33174302#0 -32270595 -29900561#1 -29900561#0 -4006688#4 -4006688#3 4006688#3"/>
    </vehicle>
    <vehicle id="60" depart="120.00" departLane="best" departSpeed="max">
        <route edges="31241853#0 31241853#1 -31241838#0 -31255203#1 -31255203#0 -4006702#0 4319352#1 44069041#0 44069041#1 25472079 30405352 30350445 -33174302#1 -33174302#0 -32302591#5 -32302591#4 -32302591#3 -32302591#2 -32302591#1 4006682 -4006682"/>
    </vehicle>
    <vehicle id="61" depart="122.00" departLane="best" departSpeed="max">
        <route edges="-4006705#1 4006703#1 28269598 -4006702#2 -4006702#1 -4006702#0 4319352#1 44069041#0 44069041#1 25472079 30405352 30350445 -33174302#1 -33174302#0 -32302591#5 -32302591#4 -32302591#3 -32302591#2 -32302591#1 -32302591#0 4006672 32270593 32270592#0"/>
    </vehicle>
    <vehicle id="62" depart="124.00" departLane="best" departSpeed="max">
        <route edges="-4006702#2 -4006702#1 -4006702#0 -3013106#2 -3013106#1 -3013106#0 -3998612#2 -3998612#1 -3998612#0 3998613#0 3998653"/>
    </vehicle>
    <vehicle id="63" depart="126.00" departLane="best" departSpeed="max">
        <route edges="23805514#0 23805514#1 -4006702#2 -4006702#1 -4006702#0 4319352#1 44069041#0 44069041#1 4400949 31982182#0 4047241 4797872 4797871 4006668 126606716 113939242#0 5445204#1 5445204#2 39539626"/>
    </vehicle>
    <vehicle id="64" depart="128.00" departLane="best" departSpeed="max">
        <route edges="-28613727#0 28613727#0 28613727#1 -94344940#0 28768072 -28613737 -4006702#0 4319352#1 44069041#0 44069041#1 4400949 31982182#0 4047241 4797872 4797871 4006668 126606716 113939242#0 5445204#1 5445204#2 -5445204#2"/>
    </vehicle>
    <vehicle id="65" depart="130.00" departLane="best" departSpeed="max">
        <route edges="31241835#0 -31241816#3 31241851#0 31241851#1 31241851#2 -31255203#0 -4006702#0 4319352#1 44069041#0 44069041#1 25472079 30405352 30350445 -33174302#1 -33174302#0 -32270595 -29900561#1 -29900561#0 -4006688#4 -4006688#3 -4006688#2 -4006688#1 -4006688#0 31401017#1 31401017#2"/>
    </vehicle>
    <vehicle id="66" depart="132.00" departLane="best" departSpeed="max">
        <route edges="4006703#0 4006703#1 28269598 -4006702#2 -4006702#1 -4006702#0 4319352#1 44069041#0 44069041#1 25472079 30405352 30350445 -33174302#1 -33174302#0 -32270595 8402997 8402998#1 8402998#2 29900564#1 8403007 23605595 -23605595"/>
    </vehicle>
    <vehicle id="67" depart="134.00" departLane="best" departSpeed="max">
        <route edges="3013106#2 4319352#1 44069041#0 44069041#1 25472079 30405352 30350445 -33174302#1 -33174302#0 -32270595 8402997 8402998#1 8402998#2 29900564#1 8403007 -23341293 -10425128#0"/>
    </vehicle>
    <vehicle id="68" depart="136.00" departLane="best" departSpeed="max">
        <route edges="4392769 28269601 37591481 -113939241 113939244#0 113939244#1 113939244#2 -126606716 23339459 30405358#1 85355912 85355911#0 85355911#1 30405356 5931612 30350450#0 30350450#1 30350450#2 4006702#0 4006702#1 4006702#2 4006701"/>
    </vehicle>
    <vehicle id="69" depart="138.00" departLane="best" departSpeed="max">
        <route edges="-32320329 -113939241 113939244#0 113939244#1 113939244#2 -126606716 23339459 30405358#1 85355912 85355911#0 85355911#1 30405356 5931612 30350450#0"/>
    </vehicle>
    <vehicle id="70" depart="140.00" departLane="best" departSpeed="max">
        <route edges="-4006674#0 -4006672 32302591#0 32302591#1 32302591#2 32302591#3 32302591#4 32302591#5 33174302#0 33174302#1 4686970#0 4686970#1 122161381 30350448 8364476 30350450#0 30350450#1 30350450#2 4319353"/>
    </vehicle>
    <vehicle id="71" depart="142.00" departLane="best" departSpeed="max">
        <route edges="-31241816#3 31241851#0 31241851#1 31241851#2 -31255203#0 -4006702#0 4319352#1 44069041#0 44069041#1 25472079 30405352 30350445 -33174302#1 -33174302#0 -32270595 -29900561#1 -29900561#0 -4006688#4 -4006688#3 -4006688#2 -4006688#1 -4006688#0 -31401017#0 -29900567 -31401018 -4047532"/>
    </vehicle>
    <vehicle id="72" depart="144.00" departLane="best" departSpeed="max">
        <route edges="23570844#2 10419402 -4006693#1 -23605595 -8403007 -29900564#1 -8402998#2 -8402998#1 -8402997 32270595 33174302#0 33174302#1 4686970#0 4686970#1 122161381 30350448 8364476 30350450#0 -3998645#2 -3998645#1 -4006726#2 -4006726#1 -4006726#0"/>
    </vehicle>
    <vehicle id="73" depart="146.00" departLane="best" departSpeed="max">
        <route edges="-23805514#1 23805514#1 -4006702#2 -4006702#1 -4006702#0 4319352#1 44069041#0 44069041#1 25472079 30405352 30350445 -33174302#1 -33174302#0 -32270595 -29900561#1 -29900561#0 -4006688#4 -4006688#3 -4006688#2 -4006688#1 -4006688#0"/>
    </vehicle>
    <vehicle id="74" depart="148.00" departLane="best" departSpeed="max">
        <route edges="31241851#2 -31255203#0 -4006702#0 4319352#1 44069041#0 44069041#1 25472079 30405352 30350445 -33174302#1 -33174302#0 -32302591#5 -32302591#4 -32302591#3 -32302591#2 -32302591#1 -32302591#0 4006672 32270593"/>
    </vehicle>
    <vehicle id="75" depart="150.00" departLane="best" departSpeed="max">
        <route edges="31720632#0 -31720632#0 -4006705#2 -4006705#1 4006703#1 28269598 -4006702#2 -4006702#1 -4006702#0 4319352#1 44069041#0 44069041#1 25472079 30405352 30350445 -33174302#1 -33174302#0 -32270595 -29900561#1 -29900561#0 -4006688#4 -4006688#3 -4006688#2 -4006688#1 -4006688#0 31401017#1 31401017#2 4006693#0"/>
    </vehicle>
    <vehicle id="76" depart="152.00" departLane="best" departSpeed="max">
        <route edges="23360299 -5445204#1 113939244#2 -126606716 23339459 30405358#1 85355912 85355911#0 85355911#1 30405356 5931612 30350450#0 30350450#1 30350450#2 4006702#0 28613737 -28613737"/>
    </vehicle>
    <vehicle id="77" depart="154.00" departLane="best" departSpeed="max">
        <route edges="-4006693#0 -31401017#2 -31401017#1 4006688#0 4006688#1 4006688#2 4006688#3 4006688#4 29900561#0 29900561#1 32270595 33174302#0 33174302#1 4686970#0 4686970#1 122161381 30350448 8364476 30350450#0 30350450#1 30350450#2 4006702#0 4006702#1 4006702#2 -28269598 -4006703#1 4006705#1 -25210699"/>
    </vehicle>
    <vehicle id="78" depart="156.00" departLane="best" departSpeed="max">
        <route edges="23605600#1 -23605600#1 4006674#4 4006687 32270595 33174302#0 33174302#1 4686970#0 4686970#1 122161381 30350448 8364476 30350450#0 30350450#1 30350450#2 4006702#0 31255203#0 -31241851#2 -31241851#1 -31241851#0 31241816#3"/>
    </vehicle>
    <vehicle id="79" depart="158.00" departLane="best" departSpeed="max">
        <route edges="-4006688#1 4006688#1 4006688#2 4006688#3 4006688#4 29900561#0 29900561#1 32270595 33174302#0 33174302#1 4686970#0 4686970#1 122161381 30350448 8364476 30350450#0 30350450#1 30350450#2 4006702#0 31255203#0 -31241851#2 -31241851#1 -31241851#0 31241816#3 31241835#1"/>
    </vehicle>
    <vehicle id="80" depart="160.00" departLane="best" departSpeed="max">
        <route edges="-5445204#2 -5445204#1 113939244#2 -126606716 23339459 30405358#1 85355912 85355911#0 85355911#1 30405356 5931612 30350450#0 -3998645#2 -3998645#1 -4006726#2 -4006726#1 3998643#1"/>
    </vehicle>
    <vehicle id="81" depart="162.00" departLane="best" departSpeed="max">
        <route edges="15259223 4006668 23339459 30405358#1 85355912 85355911#0 85355911#1 30405356 25472079 30405352 19796637 122161390 -30357194 3998613#0 3998653"/>
    </vehicle>
    <vehicle id="82" depart="164.00" departLane="best" departSpeed="max">
        <route edges="4047241 4797872 4797871 4006668 23339459 30405358#1 85355912 85355911#0 85355911#1 30405356 5931612 30350450#0 30350450#1 30350450#2 4006702#0 31255203#0 31255203#1 31241838#0 31241838#1 -31241816#0"/>
    </vehicle>
    <vehicle id="83" depart="166.00" departLane="best" departSpeed="max">
        <route edges="4006687 32270595 33174302#0 33174302#1 4686970#0 4686970#1 122161381 30350448 8364476 30350450#0 30350450#1 30350450#2 4006702#0 4006702#1 4006702#2 -28269598 -4006703#1 4006705#1 4006705#2 -4006705#2"/>
    </vehicle>
    <vehicle id="84" depart="168.00" departLane="best" departSpeed="max">
        <route edges="-4006703#1 4006703#1 28269598 -4006702#2 -4006702#1 -4006702#0 4319352#1 44069041#0 44069041#1 25472079 30405352 30350445 -33174302#1 -33174302#0 -32302591#5 -32302591#4 -32302591#3 -32302591#2 -32302591#1 4006682"/>
    </vehicle>
    <vehicle id="85" depart="170.00" departLane="best" departSpeed="max">
        <route edges="23570844#2 10419402 -4006693#1 -23605595 -8403007 -29900564#1 -8402998#2 -8402998#1 -8402997 32270595 33174302#0 33174302#1 4686970#0 4686970#1 122161381 30350448 8364476 30350450#0 30350450#1 30350450#2 4006702#0 28613737"/>
    </vehicle>
    <vehicle id="86" depart="172.00" departLane="best" departSpeed="max">
        <route edges="4099270#0 -3998615#2 3998643#2 30350450#2 4319352#1 44069041#0 44069041#1 4400949 31982182#0 4047241 4797872 4797871 4006668 126606716 113939242#0 113939242#1 113939242#2 113939241 -37591481 37591481"/>
    </vehicle>
    <vehicle id="87" depart="174.00" departLane="best" departSpeed="max">
        <route edges="5445204#1 -5445204#1 113939244#2 -126606716 23339459 30405358#1 85355912 85355911#0 85355911#1 30405356 5931612 30350450#0 30350450#1 30350450#2 4006702#0 31255203#0 -31241851#2 -31241851#1 -31241851#0 31241816#3 -31241816#3"/>
    </vehicle>
    <vehicle id="88" depart="176.00" departLane="best" departSpeed="max">
        <route edges="-4006682 32302591#1 32302591#2 32302591#3 32302591#4 32302591#5 33174302#0 33174302#1 4686970#0 4686970#1 122161381 30350448 8364476 30350450#0 30350450#1 30350450#2 4006702#0 4006702#1 4006702#2 -23805514#1 23805514#1"/>
    </vehicle>
    <vehicle id="89" depart="178.00" departLane="best" departSpeed="max">
        <route edges="113939242#0 113939244#2 -126606716 23339459 30405358#1 85355912 85355911#0 85355911#1 30405356 5931612 30350450#0 30350450#1 30350450#2 4006702#0 31255203#0 31255203#1 31241838#0 31241838#1 -31241838#1"/>
    </vehicle>
    <vehicle id="90" depart="180.00" departLane="best" departSpeed="max">
        <route edges="4006705#1 -4006705#1 4006703#1 28269598 -4006702#2 -4006702#1 -4006702#0 4319352#1 44069041#0 44069041#1 25472079 30405352 30350445 -33174302#1 -33174302#0 -32270595 -29900561#1 -29900561#0 -4006688#4 -4006688#3 -4006688#2 -4006688#1 -4006688#0 31401017#1 -8402998#3"/>
    </vehicle>
    <vehicle id="91" depart="182.00" departLane="best" departSpeed="max">
        <route edges="-31270441 31777493#1 35842306#0 35842306#1 4047446#0 4047446#1 4400949 31982182#0 4047241 4797872 4797871 4006668 126606716 113939242#0 113939242#1 113939242#2 113939241"/>
    </vehicle>
    <vehicle id="92" depart="184.00" departLane="best" departSpeed="max">